Circuit: * C:\PROJECT\c89_morion\sim\amp_single_sim.asc

Direct Newton iteration failed to find .op point.  (Use ".option noopiter" to skip.)
Starting Gmin stepping
Gmin = 10
Gmin = 1.07374
vernier = 0.5
vernier = 0.25
vernier = 0.125
vernier = 0.0625
Gmin = 1.08884
vernier = 0.03125
vernier = 0.015625
Gmin = 1.03122
vernier = 0.0078125
vernier = 0.00390625
Gmin = 1.01922
vernier = 0.00520833
vernier = 0.00260417
Gmin = 1.01294
vernier = 0.00347222
vernier = 0.00173611
vernier = 0.00231481
vernier = 0.00115741
Gmin = 1.01045
vernier = 0.00154321
vernier = 0.000771604
Gmin = 1.00831
vernier = 0.00102881
vernier = 0.000514403
Gmin = 1.00689
vernier = 0.00068587
vernier = 0.000514403
Gmin = 1.00563
vernier = 0.00068587
vernier = 0.000514402
Gmin = 0
Gmin stepping failed

Starting source stepping with srcstepmethod=0
Source Step = 3.0303%
Source Step = 33.3333%
Source Step = 63.6364%
Source Step = 93.9394%
Source stepping succeeded in finding the operating point.


Date: Mon Aug 24 03:18:59 2015
Total elapsed time: 0.365 seconds.

tnom = 27
temp = 27
method = trap
totiter = 6284
traniter = 0
tranpoints = 0
accept = 0
rejected = 0
matrix size = 47
fillins = 73
solver = Normal
Matrix Compiler1:     308 opcodes
Matrix Compiler2: off  [0.6]/0.9/1.6


